         195
 MC_STEP:            0
 Kr      -10.643774118655259        10.352122958069177        1.2692455891206988     
 Kr       10.553772531051928       -4.8499685434065380        10.073160163989634     
 Kr      -2.0213870329908374        3.2338579989213274        5.0613723113966058     
 Kr      -5.7737817253302568       -7.8369765491872805        2.9808258953666971     
 Kr      -4.7771162576618096        6.0085449818819612        3.9268605060067352     
 Kr       3.9485247814380315        2.8692338720840067       -1.0594783540343240     
 Kr       6.6006697689831748       -9.0895373811695990       -11.536167443604889     
 Kr       5.5089418738707678        2.0397623508426834        3.3820313520614680     
 Kr       1.9999775298116167        7.3234230858022613        9.5789644604661606E-002
 Kr       11.403420239676732        7.3839024391312611       -1.1197610477603759     
 Kr       9.6937122066360271       -11.274352048401981        7.3425759590773483     
 Kr       11.664878314653727        2.8645471447464059       -6.2363439662852569     
 Kr       9.1754954515238332        1.4524945570073236       -11.409802888138570     
 Kr       8.5192319109538328       -6.5676977684664237       -7.7849347194712255     
 Kr       3.6841582616773878        4.1846425458307639       -9.6596438351509111     
 Kr       6.4588075879130233        12.222413824542491        11.105001139641256     
 Kr      -10.980998552210346        9.8649839400479742        11.836764263664392     
 Kr      -10.089881430173204       -10.618433883377746        9.8022133020443238     
 Kr       4.8458663686406638       -8.0444161341735096        9.7259372405914224     
 Kr      -7.3818643447467860       -5.2406433494889990       -10.504652816645239     
 Kr      -9.0378552741215969       -9.5756737238489489       -9.9370648791944340     
 Kr      -2.3473933930399484        10.441799446103401        3.6139593774209331     
 Kr      -10.705875864805792        6.1471162167143722       0.79899789190222137     
 Kr       5.2895236600166511        5.2605154345806069        8.1535890455294702     
 Kr      -10.441555406655334        4.6654688465821135       -3.4945123946215961     
 Kr      -9.8208910729753658        6.0337769014821019        9.3424935395376121     
 Kr       7.8909340910477228        7.8378537961743655        12.094034600845415     
 Kr      -2.2550520683304711       -10.531469862455452        11.629351529891567     
 Kr      -3.4257554302560362        1.1229569267438524       -6.3834716466722954     
 Kr       5.5672119570505636       -11.281677880011037        3.5771548220637053     
 Kr     -0.85840764247027967       0.71411502712154518        2.4873486359989734     
 Kr       5.4956092646862205       -9.4584152092277325      -0.39953113793373685     
 Kr       11.427151607585898        7.8391771911176091        10.242843321270204     
 Kr      -4.2227673382818107        6.6638202738819459        10.459979809883693     
 Kr      -10.384431775915989       -8.2246063810731105        6.5339602865937572     
 Kr       10.952191938152959        2.5210749322207642        3.8167099956474786     
 Kr      -7.0962926615722957        8.8332676800854237        7.1367506631484234     
 Kr     -0.70853233646459568       -9.0727263842127570       -7.3497542077377549     
 Kr      0.59617191416652537        11.827601911604544       -7.9799839203525185     
 Kr      -5.0036816105636346      -0.64644872630203742        7.6764327627734286     
 Kr       12.129549335307548       -10.490987418997580       -10.238903948883380     
 Kr       4.5296190496164455        6.7018130115762879       -3.9068221111789843     
 Kr      -6.6939378525974398       -8.7027686429996205        10.362984488311447     
 Kr       8.0164192290513441        4.3839439253721437        10.631291456731402     
 Kr      -1.5082717694454599        8.0900647592532327        8.2554641283858903     
 Kr       4.8421575950744353       -12.238951079232343       -9.6372767657335050     
 Kr      -1.2518465294880459       -2.6002996740521840       -12.397855662535969     
 Kr       7.5438723307114657        2.4043188735765595       -2.0204472091395029     
 Kr      -2.9786839723314751       -4.1553752281969167       -4.7137915078534016     
 Kr       3.2298452550705790        9.2794429229726436        5.0745857833891490     
 Kr      -8.3093112511431784       -6.2444861453700540       -6.8111280294084420     
 Kr      -5.3210929589770029        2.0401888903622809        4.4330892419343986     
 Kr       3.9196532374404001       -2.7532634762637480       0.20730048900664821     
 Kr      -1.8854430460921334        4.6464836160830734        1.0572001659312589     
 Kr     -0.18882882314700811       -4.4555772777971789       0.37080858162194946     
 Kr       8.0630710447831664        5.9918418543600707        5.1961202010724499     
 Kr     -0.76348393853496177        1.3769826054673084       -2.6958482841729499     
 Kr       11.027700415885334       -10.749078811527566        11.127074933123975     
 Kr     -0.62426112757881236        4.6815647878739153        9.2460302186680554     
 Kr      -10.795391226032841        6.3098944334648595       -8.2711156407139494     
 Kr       12.229835165558377        9.0737328176063361       -6.4445906923345202     
 Kr       10.391984417495790       -1.0440505212570645        10.191034421546616     
 Kr       2.6017971702128326      -0.44606349205906504       -3.7742176076869831     
 Kr      -10.054459391778959       -1.7081880496792738       -9.5070792236749462     
 Kr     -0.21361209715673735        7.1364359452545241       -11.337954754657165     
 Kr      0.75126552852248096       -8.8345385455719239        2.1867385765107326     
 Kr      -1.0261799080739404       -7.3333578184279435       -2.9894066904603669     
 Kr      -11.221893545436142       -5.2571015441621185       -10.253925305676571     
 Kr      -8.4767475284473530        4.0421452108672646        5.3915388459873874     
 Kr      -4.6085789703948503       -11.097141055259268        1.2534581527346518     
 Kr      -9.4748731631906828      -0.56287993401767655        5.6906148689356240     
 Kr      -8.8029766476427298        7.2668060945958404       -11.511640519224075     
 Kr      -9.0415503255831524       -1.6461228050832166        10.144088096360500     
 Kr      -6.3501203084507543        7.8230206928388117       -1.0963821075629820     
 Kr       11.337883076089119        6.1429915208808525       -11.144027432539982     
 Kr       6.5042692617024906        8.8695424453242140        8.7995519839097991     
 Kr      -10.773206692788589       -8.5535027693517165       -4.4006527687473875     
 Kr      -1.6351266067402725       -2.0186553260856002       -8.5161573119751424     
 Kr       9.3921084289759165       -1.2809567783890778       -4.7080267613169804     
 Kr       3.2458749657247070       -8.5298054788806894       -8.7625057048804127     
 Kr       12.416789010646498       -3.5631831200881150       -2.5198688244607998     
 Kr      -7.8162730119460342       -12.355848215519439       -5.0986828429789526     
 Kr       3.5500350941139844        8.1222968491783512       -10.951342205805442     
 Kr       10.038260094109424        9.9729255282586831        3.3344366650116033     
 Kr       11.595311416969398       -11.008739191073442       -4.4748239170703084     
 Kr       8.1231456652326735        1.3484609534372263       -7.3221383372763684     
 Kr      -3.4568593641325918       -5.3940126848716599       -11.356865903188359     
 Kr      -8.5116582862113095       -11.614901054004944        6.4684188056838625     
 Kr       9.8838976337066438       -10.476739747527414        3.1953163101827222     
 Kr      -1.2266797570722965       -12.498783396261693       0.58280993354235666     
 Kr       6.7934110138139996       -1.5427031690136288       -10.084485097223169     
 Kr       6.9654890916154972        10.087626201712736       -7.7242677205031587     
 Kr       10.389420047950372        11.862505636439510       -8.2472281145283599     
 Kr       6.4101066197860934       -5.6990841629886435E-002   9.5729890293824038     
 Kr      -5.4872978571568671       -4.4904049327081026        6.8082789280722427     
 Kr      -10.479344022517841        1.5858538126120327        9.2388778333564279     
 Kr      -5.9617062402247676      -0.48514020985519213       -7.9564206646441287     
 Kr      -1.1147891038541551       -11.524110014757388        5.9808099135276098     
 Kr      -8.0427918401453660       -4.4836643569333585        4.3846003168380028     
 Kr       2.0940222704615694       -5.5112836021809999       -11.139186466501560     
 Kr       7.7040093338306663        5.5829902634396831       -8.9151854254513463     
 Kr       3.4028010144030936        3.9935382419930052        11.489162493814199     
 Kr      -6.9688022072172116        8.8660876000596893        3.4370307730663643     
 Kr       4.8080620851697207        12.356395776571715        7.5040587629464000     
 Kr       7.0139519661058900        8.1508120366019163       -1.8743136892599821     
 Kr      -10.940104481333613       -5.0466892705015338        10.941547971628642     
 Kr       9.6298917349625146      -0.96874790009973955        6.2176975922183715     
 Kr       9.6212957811029760        9.7846005228481019        7.4638665139908094     
 Kr      -4.0553445832543584        5.2999122835058827       -6.3877865678786865     
 Kr      -5.1008660575512454       -8.0142294727934935       -6.6447729542669807     
 Kr      -10.090274441527979        1.9626536829146195       -9.1057720529531263     
 Kr       12.257335505957451       -1.7971319579990652        1.1653254369055122     
 Kr       1.0174338895141632       0.26796699100199439       -10.818534424644566     
 Kr      -7.6423996681660720        3.5948966789388290       -5.5715745190643320     
 Kr      -6.4073082613892662        11.340006551795238       -1.8387544391321704     
 Kr      -11.034529684636679       -2.8007706522117233       -5.7755912325690248     
 Kr      -6.0998457991711028       -6.9002365439607640       -1.3485421324891500     
 Kr      -5.8725057665672740       -1.5469229395047384        4.2622236284527606     
 Kr       7.4980430726349967        2.2129944788136733        6.5828139214918089     
 Kr       9.1544202708652538       -5.1029273059782474       -11.135244366968786     
 Kr      -10.835928278244012        12.276575565772186       -7.7985936054015053     
 Kr       8.7209374665086710       -7.6392465948941108        6.8559775065352326     
 Kr       2.2147513364173506      -0.24587211776729567        2.7576163683532786     
 Kr       1.6152665580639463       -5.8458315855011014        4.8783601371165455     
 Kr      -5.0918168618935304       -12.081442383561528        8.0053885125259594     
 Kr      -2.6708340089905356        9.8059267595864217       -4.2780606766637197     
 Kr       5.2555306222430485       -6.6689879079213670        2.4715480904499043     
 Kr      0.49018502346946241       -6.9501610481176455        10.726253619365970     
 Kr       2.1980571890644338       -2.1435116485062551        6.7224965561709160     
 Kr       7.9387611595221310       -4.9498830797070408        1.3802182742923912     
 Kr       5.0233256408961715       -8.3977180072115321       -4.8295093480651587     
 Kr       11.489954452436885      -0.38956100711854402       -8.3513577612552403     
 Kr     -0.90814789822729336       -7.0893733216585986        7.1636226221772361     
 Kr       5.2013383863098035      -0.47315741974154613       -2.4627053664364267     
 Kr      -8.2967626742968488       0.44384719586533783      -0.60022440671596011     
 Kr      -4.3135115430190361        1.3634534194387802      -0.61930904884941185     
 Kr       7.6405991152693113        11.220293209715919       0.84607854901898039     
 Kr      -3.7519290911224052        2.5800473014099379        8.1599017606089621     
 Kr       7.9926803739662819      -0.25654805290475091       0.74641353804630606     
 Kr       9.4228350638459890        7.2645777881191460       -6.3508318624440037     
 Kr       3.5154870645140224       -2.3030483769759966        11.941508024749947     
 Kr      -3.4079635769634491        10.642829650438490        12.268260671127457     
 Kr      -3.3147481756973436       -6.0616207278656358        1.0998617369716954     
 Kr      -11.337028096072771        8.4761913354375906        7.0683326136339000     
 Kr      -1.2637382777903468       -10.260543216920553       -3.5774658995808730     
 Kr       1.7584380797144776        12.323049505739801        3.9353318173522500     
 Kr      -10.858692119826225       -4.8561638137396557        6.1979462754572525     
 Kr      -11.160331461879696        11.859318817795709        4.2492423861770217     
 Kr      -5.1674493735531790E-002   2.5693583386973531       -7.1560048560653566     
 Kr       4.3200384149350040       -3.1970511378263344       -8.3022136711908274     
 Kr      -5.6220660354180607       -2.7686412177053672       0.89377519780449299     
 Kr      -9.7890512263605682        2.4574014298786557        2.4592102453571698     
 Kr      -12.250556770965886        1.6513405033280497       -12.418698477480882     
 Kr      -4.4797572661045590       -6.0330891289893831        9.7281566552633727     
 Kr       2.2907891858849228        2.0060999503148658        8.2529327940599302     
 Kr      -3.8539748234636906        4.4444076761374127       -2.3165610598237212     
 Kr       11.896830580876875        2.8474303331264106        7.4143419933298755     
 Kr      -4.7295275665259870       -11.462127728538452       -5.3604424521411840     
 Kr      0.87710255323835418       -2.0450911940427225       -5.9958047472134597     
 Kr      -3.4801657626290643        1.8109794410693727       -12.124625701716962     
 Kr      -5.4675070774495129        12.424500498768394       -9.7481926698812362     
 Kr       11.328269146172163       -11.439469743631186      -0.85688229896380697     
 Kr       9.3100709113572950       -10.461639467921874       -4.1784509726095571     
 Kr       4.7855220093938469       -12.032105926911074       -1.8720339148653649     
 Kr      -11.858444430037213       -11.286898908041398        7.2835596062151247     
 Kr      -5.7060569626718571        6.6152452647401399       -10.420203509209355     
 Kr       11.414788991265395       -8.8537878655190081        5.5423494179409341     
 Kr      -3.9563644245079130        8.6981432504944731       -8.8389035482808804     
 Kr       2.4414905905900524        10.012887929108862        11.143178426842704     
 Kr       2.6059743376220941       -10.179540649120399        6.6924388321528223     
 Kr       1.6618954618725548       -12.192369841620465       -5.3848631459876559     
 Kr       11.147400118592833       -7.0801634790803645        12.453147318490041     
 Kr      -4.9218155539137332       -2.1266169731708584       -3.1220960894877137     
 Kr       9.0907629150251061       -4.0118515320149237       -2.3468694125506535     
 Kr      -5.2959376830932214        5.7656059792735501        7.0120911442106220     
 Kr       11.544621821809830       -5.2846827293342225        3.9183921349951927     
 Kr       11.788799424908039       -5.4177911459704688       -7.2121804681319235     
 Kr       9.2229714426567959        12.101567813589384        9.9513378507405577     
 Kr      -1.4089937389421603       -4.1503356835596144        8.8626868149024105     
 Kr      -7.6799197239805217       -2.8976381183956179       -2.7841469570742907     
 Kr      -7.1786707295324295        1.1249301237178946        7.1246438685372979     
 Kr      -11.446117703189767       -8.6975485122141585        1.3182559981001916     
 Kr      -3.4200879830759727        12.407373219350982       -1.8326773926948010     
 Kr      -7.5106333399716894       -5.0695750468496810        11.172478076254476     
 Kr       2.3186544090414429E-002   8.7485375716822880       -2.7306899927900199     
 Kr      -12.440363466910798        10.169199052859588       -3.6932093257489140     
 Kr       1.8411407469536401        4.4297822544308749        3.1922047826489344     
 Ar       4.6071177531575414       -2.9187338032632795        4.1281159645460548     
 Ar      -9.8047453174019221       -9.1743675720901443       -1.1821006824736247     
 Ar       8.7111428275679046       -4.7613153232499759       -4.9013366154893543     
 Ar       3.8289628534071278       -5.7792053316560148       -1.5580918466220757     
 Ar      -4.5414792457840303       -1.3557442787731022        10.666007780199834     
